$ WAVEWATCH III Grid output post-processing (GrADS)
$ -------------------------------------------------
  19680228 230000 3600. 999
$
  N
  HS PDP PQP PPE PGW PSW PHS QP
$
  1 999 1 999  F F
