$ WAVEWATCH III Grid output post-processing (GrADS)
$ -------------------------------------------------
  19681230 230000 3600. 999
$
  N
  HS
$
  1 999 1 999  F F
